112
#Comment
C 0.0 0.0 0.0
C 1.0 0.0 0.0
C 1.0 0.0 -1.0
C 1.0 0.0 -2.0
C 0.0 0.0 -2.0
C -1.0 0.0 -2.0
C -2.0 0.0 -2.0
C -2.0 0.0 -3.0
C -1.0 0.0 -3.0
C -1.0 -1.0 -3.0
C -1.0 -1.0 -4.0
C -1.0 -1.0 -5.0
C -1.0 0.0 -5.0
C -1.0 0.0 -6.0
C 0.0 0.0 -6.0
C 0.0 1.0 -6.0
C -1.0 1.0 -6.0
C -1.0 2.0 -6.0
C -2.0 2.0 -6.0
C -3.0 2.0 -6.0
C -3.0 3.0 -6.0
C -3.0 3.0 -5.0
C -4.0 3.0 -5.0
C -5.0 3.0 -5.0
C -5.0 3.0 -4.0
C -4.0 3.0 -4.0
C -4.0 3.0 -3.0
C -4.0 4.0 -3.0
C -4.0 4.0 -2.0
C -4.0 4.0 -1.0
C -5.0 4.0 -1.0
C -5.0 4.0 -2.0
C -5.0 4.0 -3.0
C -5.0 3.0 -3.0
C  -5.0 3.0 -2.0
C  -4.0 3.0 -2.0
C  -4.0 2.0 -2.0
C  -4.0 2.0 -3.0
C  -4.0 1.0 -3.0
C  -4.0 1.0 -4.0
C  -4.0 2.0 -4.0
C  -3.0 2.0 -4.0
C  -3.0 3.0 -4.0
C  -2.0 3.0 -4.0
C  -2.0 4.0 -4.0
C  -1.0 4.0 -4.0
C  -1.0 3.0 -4.0
C  -1.0 3.0 -5.0
C  -1.0 3.0 -6.0
C  -1.0 3.0 -7.0
C  -1.0 2.0 -7.0
C  -1.0 2.0 -8.0
C  0.0 2.0 -8.0
C  0.0 2.0 -9.0
C  0.0 2.0 -10.0
C  1.0 2.0 -10.0
C  2.0 2.0 -10.0
C  2.0 2.0 -9.0
C  1.0 2.0 -9.0
C  1.0 3.0 -9.0
C  2.0 3.0 -9.0
C  3.0 3.0 -9.0
C  3.0 3.0 -10.0
C  3.0 4.0 -10.0
C  2.0 4.0 -10.0
C  2.0 4.0 -11.0
C  2.0 3.0 -11.0
C  2.0 3.0 -12.0
C  1.0 3.0 -12.0
C  1.0 3.0 -13.0
C  1.0 4.0 -13.0
C  1.0 4.0 -14.0
C  1.0 4.0 -15.0
C  0.0 4.0 -15.0
C  0.0 4.0 -14.0
C  -1.0 4.0 -14.0
C  -1.0 4.0 -15.0
C  -2.0 4.0 -15.0
C  -2.0 4.0 -16.0
C  -3.0 4.0 -16.0
C  -3.0 3.0 -16.0
C  -3.0 3.0 -15.0
C  -3.0 3.0 -14.0
C  -3.0 3.0 -13.0
C  -2.0 3.0 -13.0
C  -1.0 3.0 -13.0
C  0.0 3.0 -13.0
C  0.0 3.0 -12.0
C  0.0 2.0 -12.0
C  -1.0 2.0 -12.0
C  -1.0 2.0 -11.0
C  -1.0 1.0 -11.0
C  -2.0 1.0 -11.0
C  -3.0 1.0 -11.0
C  -3.0 1.0 -12.0
C  -3.0 0.0 -12.0
C  -2.0 0.0 -12.0
C  -2.0 -1.0 -12.0
C  -1.0 -1.0 -12.0
C  -1.0 -1.0 -11.0
C  0.0 -1.0 -11.0
C  0.0 -2.0 -11.0
C  -1.0 -2.0 -11.0
C  -1.0 -2.0 -10.0
C  -2.0 -2.0 -10.0
C  -2.0 -2.0 -9.0
C  -2.0 -3.0 -9.0
C  -2.0 -3.0 -10.0
C  -2.0 -4.0 -10.0
C  -2.0 -4.0 -9.0
C  -2.0 -4.0 -8.0
C  -2.0 -5.0 -8.0
